Version 4.1
SHEET 1 880 680
WIRE -496 -16 -496 -48
WIRE 96 64 16 64
WIRE 256 64 176 64
WIRE -496 128 -496 64
WIRE -496 128 -608 128
WIRE -128 128 -176 128
WIRE 16 128 16 64
WIRE 16 128 -48 128
WIRE 160 128 16 128
WIRE 256 144 256 64
WIRE 256 144 224 144
WIRE 304 144 256 144
WIRE 160 160 16 160
WIRE -496 192 -496 128
WIRE 16 192 16 160
WIRE -496 288 -496 272
WIRE 16 320 16 272
FLAG 304 144 Output
FLAG 192 112 vp
FLAG 192 176 vn
FLAG 16 320 0
FLAG -608 128 0
FLAG -176 128 0
FLAG -496 -48 vp
FLAG -496 288 vn
SYMBOL OpAmps\\UniversalOpAmp2 192 144 R0
SYMATTR InstName U1
SYMBOL voltage 16 176 R0
WINDOW 123 0 0 Left 0
WINDOW 39 0 0 Left 0
SYMATTR InstName V1
SYMATTR Value SINE(0 50m 60)
SYMBOL res 192 48 R90
WINDOW 0 0 56 VBottom 2
WINDOW 3 32 56 VTop 2
SYMATTR InstName Rf
SYMATTR Value 90K
SYMBOL res -32 112 R90
WINDOW 0 0 56 VBottom 2
WINDOW 3 32 56 VTop 2
SYMATTR InstName R1
SYMATTR Value 10K
SYMBOL voltage -496 -32 R0
WINDOW 123 0 0 Left 0
WINDOW 39 0 0 Left 0
SYMATTR InstName V2
SYMATTR Value 5V
SYMBOL voltage -496 176 R0
WINDOW 123 0 0 Left 0
WINDOW 39 0 0 Left 0
SYMATTR InstName V3
SYMATTR Value 5V
TEXT -376 128 Left 2 !.tran 100m
