Version 4.1
SHEET 1 880 680
WIRE -624 -48 -624 -96
WIRE 144 16 32 16
WIRE 320 16 224 16
WIRE -624 64 -624 32
WIRE -624 64 -704 64
WIRE -624 96 -624 64
WIRE -112 128 -144 128
WIRE 32 128 32 16
WIRE 32 128 -32 128
WIRE 160 128 32 128
WIRE 320 144 320 16
WIRE 320 144 224 144
WIRE 368 144 320 144
WIRE 160 160 32 160
WIRE 32 192 32 160
WIRE -624 208 -624 176
WIRE 32 304 32 272
FLAG 192 112 vp
FLAG 192 176 vn
FLAG 368 144 Output
IOPIN 368 144 Out
FLAG 32 304 0
FLAG -144 128 0
FLAG -704 64 0
FLAG -624 208 vn
FLAG -624 -96 vp
SYMBOL OpAmps\\LT1006 192 80 R0
SYMATTR InstName U1
SYMBOL voltage 32 176 R0
WINDOW 123 0 0 Left 0
WINDOW 39 0 0 Left 0
SYMATTR InstName V1
SYMATTR Value SINE(0 50m 60)
SYMBOL res -16 112 R90
WINDOW 0 0 56 VBottom 2
WINDOW 3 32 56 VTop 2
SYMATTR InstName R1
SYMATTR Value 10K
SYMBOL res 240 0 R90
WINDOW 0 0 56 VBottom 2
WINDOW 3 32 56 VTop 2
SYMATTR InstName Rf
SYMATTR Value 90K
SYMBOL voltage -624 -64 R0
WINDOW 123 0 0 Left 0
WINDOW 39 0 0 Left 0
SYMATTR InstName V2
SYMATTR Value 5V
SYMBOL voltage -624 80 R0
WINDOW 123 0 0 Left 0
WINDOW 39 0 0 Left 0
SYMATTR InstName V3
SYMATTR Value 5V
TEXT -416 104 Left 2 !.tran 100m
